IEEE_4_VLN.Txt

SYMMETRICAL COMPONENT VOLTAGES BY BUS (for 3-phase buses)

Bus        Mag:   V1 (kV)    p.u.     V2 (kV)   %V2/V1    V0 (kV)    %V0/V1

sourcebus      6.35     0.9998  3.103E-009  4.887E-008 4.041E-010 6.365E-009
1            0.2395    0.03772  1.241E-010  5.179E-008 3.826E-017 1.597E-014
2             5.915     0.9314  2.891E-009  4.887E-008 1.674E-010 2.83E-009
3             5.737     0.9033  2.803E-009  4.887E-008 6.036E-011 1.052E-009
4             5.684     0.8951  2.778E-009  4.887E-008 3.19E-011 5.612E-010
